AIN
     RDKit          3D

 21 21  0  0  0  0  0  0  0  0999 V2000
    1.7310    0.0620   -2.9120 O   0  0  0  0  0  0  0  0  0  0  0  0
    1.4110    0.0210   -1.6040 C   0  0  0  0  0  0  0  0  0  0  0  0
    2.2890    0.0060   -0.7640 O   0  0  0  0  0  0  0  0  0  0  0  0
   -0.0030   -0.0060   -1.1910 C   0  0  0  0  0  0  0  0  0  0  0  0
   -1.0160    0.0100   -2.1530 C   0  0  0  0  0  0  0  0  0  0  0  0
   -2.3370   -0.0150   -1.7610 C   0  0  0  0  0  0  0  0  0  0  0  0
   -2.6660   -0.0630   -0.4160 C   0  0  0  0  0  0  0  0  0  0  0  0
   -1.6750   -0.0850    0.5440 C   0  0  0  0  0  0  0  0  0  0  0  0
   -0.3400   -0.0600    0.1680 C   0  0  0  0  0  0  0  0  0  0  0  0
    0.6340   -0.0830    1.1110 O   0  0  0  0  0  0  0  0  0  0  0  0
    0.3140    0.0350    2.4100 C   0  0  0  0  0  0  0  0  0  0  0  0
   -0.8240    0.2770    2.7320 O   0  0  0  0  0  0  0  0  0  0  0  0
    1.3760   -0.1340    3.4660 C   0  0  0  0  0  0  0  0  0  0  0  0
    2.6590    0.0800   -3.1830 H   0  0  0  0  0  0  0  0  0  0  0  0
   -0.7650    0.0470   -3.2030 H   0  0  0  0  0  0  0  0  0  0  0  0
   -3.1190    0.0010   -2.5050 H   0  0  0  0  0  0  0  0  0  0  0  0
   -3.7040   -0.0820   -0.1170 H   0  0  0  0  0  0  0  0  0  0  0  0
   -1.9390   -0.1230    1.5910 H   0  0  0  0  0  0  0  0  0  0  0  0
    0.9310   -0.0040    4.4530 H   0  0  0  0  0  0  0  0  0  0  0  0
    1.8070   -1.1330    3.3910 H   0  0  0  0  0  0  0  0  0  0  0  0
    2.1580    0.6100    3.3180 H   0  0  0  0  0  0  0  0  0  0  0  0
  1  2  1  0
  1 14  1  0
  2  3  2  0
  2  4  1  0
  4  5  2  0
  4  9  1  0
  5  6  1  0
  5 15  1  0
  6  7  2  0
  6 16  1  0
  7  8  1  0
  7 17  1  0
  8  9  2  0
  8 18  1  0
  9 10  1  0
 10 11  1  0
 11 12  2  0
 11 13  1  0
 13 19  1  0
 13 20  1  0
 13 21  1  0
M  END
