TA1
     RDKit          3D

  0  0  0  0  0  0  0  0  0  0999 V3000
M  V30 BEGIN CTAB
M  V30 COUNTS 113 119 0 0 1
M  V30 BEGIN ATOM
M  V30 1 O -1.446000 2.756000 1.663000 0
M  V30 2 C -0.438000 1.728000 1.715000 0 CFG=1
M  V30 3 C -1.020000 0.589000 2.581000 0 CFG=1
M  V30 4 O -2.275000 0.211000 1.905000 0
M  V30 5 C -3.425000 0.840000 2.217000 0
M  V30 6 O -3.428000 1.719000 3.056000 0
M  V30 7 C -4.682000 0.461000 1.540000 0
M  V30 8 C -5.875000 1.111000 1.861000 0
M  V30 9 C -7.045000 0.753000 1.224000 0
M  V30 10 C -7.038000 -0.248000 0.270000 0
M  V30 11 C -5.860000 -0.896000 -0.053000 0
M  V30 12 C -4.681000 -0.544000 0.571000 0
M  V30 13 C -0.107000 -0.631000 2.658000 0 CFG=2
M  V30 14 C -0.707000 -1.845000 1.997000 0 CFG=2
M  V30 15 O -0.542000 -1.783000 0.543000 0
M  V30 16 C -0.894000 -2.830000 -0.218000 0
M  V30 17 O -1.443000 -3.783000 0.282000 0
M  V30 18 C -0.605000 -2.818000 -1.697000 0
M  V30 19 C -2.126000 -2.235000 2.413000 0
M  V30 20 O -1.623000 -3.281000 3.252000 0
M  V30 21 C -0.396000 -3.240000 2.522000 0 CFG=2
M  V30 22 C 0.829000 -3.293000 3.435000 0
M  V30 23 C 0.653000 -2.220000 4.503000 0 CFG=2
M  V30 24 O -0.584000 -2.348000 5.187000 0
M  V30 25 C 0.741000 -0.827000 3.870000 0 CFG=2
M  V30 26 C 0.251000 0.043000 5.016000 0
M  V30 27 C 2.208000 -0.525000 3.697000 0
M  V30 28 O 3.020000 -1.439000 3.787000 0
M  V30 29 C 2.695000 0.884000 3.424000 0 CFG=2
M  V30 30 O 2.672000 1.717000 4.599000 0
M  V30 31 C 3.729000 1.740000 5.427000 0
M  V30 32 O 4.700000 1.063000 5.185000 0
M  V30 33 C 3.704000 2.611000 6.656000 0
M  V30 34 C 1.889000 1.358000 2.250000 0
M  V30 35 C 2.141000 0.830000 1.055000 0
M  V30 36 C 1.263000 1.206000 -0.115000 0 CFG=1
M  V30 37 O 1.408000 0.177000 -1.145000 0
M  V30 38 C 2.370000 0.289000 -2.075000 0
M  V30 39 O 3.116000 1.240000 -2.061000 0
M  V30 40 C 2.519000 -0.769000 -3.136000 0 CFG=2
M  V30 41 O 3.604000 -0.427000 -4.001000 0
M  V30 42 C 1.227000 -0.861000 -3.951000 0 CFG=1
M  V30 43 N 0.957000 0.431000 -4.585000 0
M  V30 44 C -0.313000 0.811000 -4.825000 0
M  V30 45 O -1.234000 0.082000 -4.515000 0
M  V30 46 C -0.586000 2.115000 -5.465000 0
M  V30 47 C -1.900000 2.512000 -5.715000 0
M  V30 48 C -2.148000 3.731000 -6.312000 0
M  V30 49 C -1.097000 4.559000 -6.664000 0
M  V30 50 C 0.208000 4.171000 -6.420000 0
M  V30 51 C 0.469000 2.958000 -5.818000 0
M  V30 52 C 1.377000 -1.920000 -5.012000 0
M  V30 53 C 0.523000 -3.008000 -5.029000 0
M  V30 54 C 0.661000 -3.979000 -6.002000 0
M  V30 55 C 1.651000 -3.863000 -6.960000 0
M  V30 56 C 2.504000 -2.776000 -6.944000 0
M  V30 57 C 2.364000 -1.802000 -5.973000 0
M  V30 58 C -0.203000 1.277000 0.287000 0
M  V30 59 C 3.301000 -0.122000 0.837000 0
M  V30 60 C 0.801000 2.375000 2.311000 0
M  V30 61 C 1.190000 3.610000 1.477000 0
M  V30 62 C 0.473000 2.895000 3.706000 0
M  V30 63 H -2.231000 2.357000 1.262000 0
M  V30 64 H -1.335000 0.980000 3.543000 0
M  V30 65 H -5.882000 1.893000 2.607000 0
M  V30 66 H -7.969000 1.255000 1.472000 0
M  V30 67 H -7.957000 -0.524000 -0.225000 0
M  V30 68 H -5.861000 -1.677000 -0.798000 0
M  V30 69 H -3.762000 -1.051000 0.318000 0
M  V30 70 H 0.663000 -0.382000 1.891000 0
M  V30 71 H -0.960000 -3.746000 -2.144000 0
M  V30 72 H -1.114000 -1.973000 -2.160000 0
M  V30 73 H 0.469000 -2.726000 -1.856000 0
M  V30 74 H -2.737000 -2.608000 1.585000 0
M  V30 75 H -2.663000 -1.487000 3.003000 0
M  V30 76 H -0.346000 -3.990000 1.730000 0
M  V30 77 H 1.728000 -3.105000 2.851000 0
M  V30 78 H 0.893000 -4.278000 3.900000 0
M  V30 79 H 1.471000 -2.297000 5.227000 0
M  V30 80 H -0.601000 -3.235000 5.570000 0
M  V30 81 H 0.676000 1.043000 4.920000 0
M  V30 82 H -0.836000 0.106000 4.985000 0
M  V30 83 H 0.563000 -0.393000 5.964000 0
M  V30 84 H 3.767000 0.825000 3.121000 0
M  V30 85 H 4.642000 2.499000 7.200000 0
M  V30 86 H 3.577000 3.653000 6.361000 0
M  V30 87 H 2.874000 2.311000 7.297000 0
M  V30 88 H 1.590000 2.147000 -0.554000 0
M  V30 89 H 2.720000 -1.731000 -2.664000 0
M  V30 90 H 3.387000 0.427000 -4.398000 0
M  V30 91 H 0.400000 -1.122000 -3.291000 0
M  V30 92 H 1.692000 1.013000 -4.833000 0
M  V30 93 H -2.722000 1.867000 -5.441000 0
M  V30 94 H -3.165000 4.039000 -6.506000 0
M  V30 95 H -1.296000 5.511000 -7.132000 0
M  V30 96 H 1.024000 4.822000 -6.697000 0
M  V30 97 H 1.489000 2.656000 -5.627000 0
M  V30 98 H -0.249000 -3.098000 -4.280000 0
M  V30 99 H -0.005000 -4.829000 -6.015000 0
M  V30 100 H 1.758000 -4.623000 -7.720000 0
M  V30 101 H 3.278000 -2.685000 -7.692000 0
M  V30 102 H 3.030000 -0.952000 -5.960000 0
M  V30 103 H -0.675000 0.312000 0.123000 0
M  V30 104 H -0.704000 1.993000 -0.380000 0
M  V30 105 H 3.335000 -0.419000 -0.210000 0
M  V30 106 H 4.234000 0.374000 1.104000 0
M  V30 107 H 3.169000 -1.005000 1.461000 0
M  V30 108 H 1.204000 3.344000 0.420000 0
M  V30 109 H 0.462000 4.404000 1.643000 0
M  V30 110 H 2.179000 3.955000 1.779000 0
M  V30 111 H 1.398000 3.119000 4.237000 0
M  V30 112 H -0.127000 3.801000 3.624000 0
M  V30 113 H -0.085000 2.136000 4.254000 0
M  V30 END ATOM
M  V30 BEGIN BOND
M  V30 1 1 2 1 CFG=3
M  V30 2 1 1 63
M  V30 3 1 2 3
M  V30 4 1 2 58
M  V30 5 1 2 60
M  V30 6 1 3 4
M  V30 7 1 3 13
M  V30 8 1 3 64 CFG=1
M  V30 9 1 4 5
M  V30 10 2 5 6
M  V30 11 1 5 7
M  V30 12 2 7 8
M  V30 13 1 7 12
M  V30 14 1 8 9
M  V30 15 1 8 65
M  V30 16 2 9 10
M  V30 17 1 9 66
M  V30 18 1 10 11
M  V30 19 1 10 67
M  V30 20 2 11 12
M  V30 21 1 11 68
M  V30 22 1 12 69
M  V30 23 1 13 14
M  V30 24 1 13 25
M  V30 25 1 13 70 CFG=3
M  V30 26 1 14 15 CFG=3
M  V30 27 1 14 19
M  V30 28 1 14 21
M  V30 29 1 15 16
M  V30 30 2 16 17
M  V30 31 1 16 18
M  V30 32 1 18 71
M  V30 33 1 18 72
M  V30 34 1 18 73
M  V30 35 1 19 20
M  V30 36 1 19 74
M  V30 37 1 19 75
M  V30 38 1 20 21
M  V30 39 1 21 22
M  V30 40 1 21 76 CFG=3
M  V30 41 1 22 23
M  V30 42 1 22 77
M  V30 43 1 22 78
M  V30 44 1 23 24
M  V30 45 1 23 25
M  V30 46 1 23 79 CFG=1
M  V30 47 1 24 80
M  V30 48 1 25 26 CFG=1
M  V30 49 1 25 27
M  V30 50 1 26 81
M  V30 51 1 26 82
M  V30 52 1 26 83
M  V30 53 2 27 28
M  V30 54 1 27 29
M  V30 55 1 29 30
M  V30 56 1 29 34
M  V30 57 1 29 84 CFG=3
M  V30 58 1 30 31
M  V30 59 2 31 32
M  V30 60 1 31 33
M  V30 61 1 33 85
M  V30 62 1 33 86
M  V30 63 1 33 87
M  V30 64 2 34 35
M  V30 65 1 34 60
M  V30 66 1 35 36
M  V30 67 1 35 59
M  V30 68 1 36 37
M  V30 69 1 36 58
M  V30 70 1 36 88 CFG=3
M  V30 71 1 37 38
M  V30 72 2 38 39
M  V30 73 1 38 40
M  V30 74 1 40 41
M  V30 75 1 40 42
M  V30 76 1 40 89 CFG=1
M  V30 77 1 41 90
M  V30 78 1 42 43
M  V30 79 1 42 52
M  V30 80 1 42 91 CFG=1
M  V30 81 1 43 44
M  V30 82 1 43 92
M  V30 83 2 44 45
M  V30 84 1 44 46
M  V30 85 2 46 47
M  V30 86 1 46 51
M  V30 87 1 47 48
M  V30 88 1 47 93
M  V30 89 2 48 49
M  V30 90 1 48 94
M  V30 91 1 49 50
M  V30 92 1 49 95
M  V30 93 2 50 51
M  V30 94 1 50 96
M  V30 95 1 51 97
M  V30 96 2 52 53
M  V30 97 1 52 57
M  V30 98 1 53 54
M  V30 99 1 53 98
M  V30 100 2 54 55
M  V30 101 1 54 99
M  V30 102 1 55 56
M  V30 103 1 55 100
M  V30 104 2 56 57
M  V30 105 1 56 101
M  V30 106 1 57 102
M  V30 107 1 58 103
M  V30 108 1 58 104
M  V30 109 1 59 105
M  V30 110 1 59 106
M  V30 111 1 59 107
M  V30 112 1 60 61
M  V30 113 1 60 62
M  V30 114 1 61 108
M  V30 115 1 61 109
M  V30 116 1 61 110
M  V30 117 1 62 111
M  V30 118 1 62 112
M  V30 119 1 62 113
M  V30 END BOND
M  V30 END CTAB
M  END
