@<TRIPOS>MOLECULE
two residues
3 2 2 0 0
BIOPOLYMER
GASTEIGER
@<TRIPOS>ATOM
11 N1 0.0000 0.0000 0.0000 N.am 5 RES_A -0.3000
22 C1 1.3000 0.0000 0.0000 C.2 5 RES_A 0.2000
33 O1 2.5000 0.0000 0.0000 O.2 9 RES_B -0.1000
@<TRIPOS>BOND
80 11 22 am
90 22 33 2
@<TRIPOS>SUBSTRUCTURE
5 RES_A 11 RESIDUE 0 A ALA 1 ROOT
9 RES_B 33 RESIDUE 0 B GLY 1 ROOT
